3
Coordinates from ORCA-job orca E -38.886268047308
  C       0.263990     -0.464770     -0.000000
  H      -0.687240      0.106130      0.000000
  H       1.119310      0.241760     -0.000000
3
Coordinates from ORCA-job orca E -38.887347334250
  C       0.265015     -0.478441      0.000000
  H      -0.654366      0.115471      0.000000
  H       1.085411      0.246089      0.000000
3
Coordinates from ORCA-job orca E -38.887501917524
  C       0.265866     -0.489783      0.000000
  H      -0.644033      0.121950      0.000000
  H       1.074226      0.250953      0.000000
3
Coordinates from ORCA-job orca E -38.887511083180
  C       0.266079     -0.492609      0.000000
  H      -0.643541      0.123408      0.000000
  H       1.073523      0.252321      0.000000
3
Coordinates from ORCA-job orca E -38.887511149023
  C       0.266083     -0.492664      0.000000
  H      -0.643754      0.123420      0.000000
  H       1.073732      0.252364      0.000000
