3
Coordinates from ORCA-job orca E -38.890472049971
  C       0.263990     -0.464770     -0.000000
  H      -0.687240      0.106130      0.000000
  H       1.119310      0.241760     -0.000000
3
Coordinates from ORCA-job orca E -38.891588109876
  C       0.264817     -0.475808      0.000000
  H      -0.652648      0.114277      0.000000
  H       1.083890      0.244651      0.000000
3
Coordinates from ORCA-job orca E -38.891708677158
  C       0.265508     -0.485006      0.000000
  H      -0.644188      0.119537      0.000000
  H       1.074740      0.248589      0.000000
3
Coordinates from ORCA-job orca E -38.891721227825
  C       0.265782     -0.488662      0.000000
  H      -0.642926      0.121470      0.000000
  H       1.073204      0.250312      0.000000
3
Coordinates from ORCA-job orca E -38.891721269376
  C       0.265784     -0.488686      0.000000
  H      -0.643110      0.121468      0.000000
  H       1.073386      0.250338      0.000000
