3
Coordinates from ORCA-job orca E -38.882448061234
  C       0.263990     -0.464770     -0.000000
  H      -0.687240      0.106130      0.000000
  H       1.119310      0.241760     -0.000000
3
Coordinates from ORCA-job orca E -38.883656934614
  C       0.265041     -0.478781      0.000000
  H      -0.651892      0.115828      0.000000
  H       1.082911      0.246073      0.000000
3
Coordinates from ORCA-job orca E -38.883797288550
  C       0.265836     -0.489374      0.000000
  H      -0.642671      0.121847      0.000000
  H       1.072895      0.250647      0.000000
3
Coordinates from ORCA-job orca E -38.883805065549
  C       0.266029     -0.491951      0.000000
  H      -0.642276      0.123172      0.000000
  H       1.072306      0.251899      0.000000
3
Coordinates from ORCA-job orca E -38.883805095198
  C       0.266031     -0.491976      0.000000
  H      -0.642430      0.123173      0.000000
  H       1.072459      0.251923      0.000000
