3
Coordinates from ORCA-job orca E -188.553741403036
  C      -1.859570      0.239890     -0.000000
  O      -0.663280      0.239890     -0.000000
  O      -3.055860      0.239890     -0.000010
3
Coordinates from ORCA-job orca E -188.558432405262
  C      -1.859570      0.239890     -0.000000
  O      -0.694598      0.239890      0.000000
  O      -3.024542      0.239890     -0.000010
3
Coordinates from ORCA-job orca E -188.558505514223
  C      -1.859570      0.239890     -0.000001
  O      -0.699453      0.239890      0.000000
  O      -3.019687      0.239890     -0.000009
3
Coordinates from ORCA-job orca E -188.558506803904
  C      -1.859570      0.239890     -0.000001
  O      -0.698880      0.239890      0.000000
  O      -3.020260      0.239890     -0.000009
3
Coordinates from ORCA-job orca E -188.558506804421
  C      -1.859570      0.239890     -0.000001
  O      -0.698888      0.239890      0.000000
  O      -3.020252      0.239890     -0.000009
