3
Coordinates from ORCA-job orca E -76.045754157151
  O      -0.952268      0.000000     -0.997705
  H      -0.952268      0.759337     -0.401662
  H      -0.952268     -0.759337     -0.401662
3
Coordinates from ORCA-job orca E -76.046953146046
  O      -0.952268      0.000000     -0.984758
  H      -0.952268      0.740767     -0.408135
  H      -0.952268     -0.740767     -0.408135
3
Coordinates from ORCA-job orca E -76.047002984773
  O      -0.952268      0.000000     -0.982914
  H      -0.952268      0.746165     -0.409057
  H      -0.952268     -0.746165     -0.409057
3
Coordinates from ORCA-job orca E -76.047011760806
  O      -0.952268     -0.000000     -0.980673
  H      -0.952268      0.748611     -0.410177
  H      -0.952268     -0.748611     -0.410177
3
Coordinates from ORCA-job orca E -76.047012026539
  O      -0.952268      0.000000     -0.980235
  H      -0.952268      0.748839     -0.410397
  H      -0.952268     -0.748839     -0.410397
3
Coordinates from ORCA-job orca E -76.047012027649
  O      -0.952268     -0.000000     -0.980222
  H      -0.952268      0.748827     -0.410403
  H      -0.952268     -0.748827     -0.410403
