3
Coordinates from ORCA-job orca E -76.410309406489
  O      -0.952268      0.000000     -0.997705
  H      -0.952268      0.759337     -0.401662
  H      -0.952268     -0.759337     -0.401662
3
Coordinates from ORCA-job orca E -76.410327243369
  O      -0.952268     -0.000000     -0.996518
  H      -0.952268      0.756704     -0.402255
  H      -0.952268     -0.756704     -0.402255
3
Coordinates from ORCA-job orca E -76.410327391997
  O      -0.952268     -0.000000     -0.996328
  H      -0.952268      0.757022     -0.402350
  H      -0.952268     -0.757022     -0.402350
