5
Coordinates from ORCA-job orca E -40.208856203088
  C      -1.807928      0.000000     -0.903964
  H      -1.277495     -0.951334     -0.827774
  H      -1.091381      0.821860     -0.846458
  H      -2.524476      0.083844     -0.084372
  H      -2.338362      0.045630     -1.857253
5
Coordinates from ORCA-job orca E -40.209011489423
  C      -1.807928      0.000000     -0.903964
  H      -1.281339     -0.944438     -0.828326
  H      -1.096575      0.815903     -0.846874
  H      -2.519282      0.083237     -0.090313
  H      -2.334518      0.045299     -1.850343
5
Coordinates from ORCA-job orca E -40.209011701810
  C      -1.807928      0.000000     -0.903964
  H      -1.281200     -0.944687     -0.828307
  H      -1.096387      0.816118     -0.846859
  H      -2.519470      0.083258     -0.090098
  H      -2.334657      0.045311     -1.850593
