4
Coordinates from ORCA-job orca E -114.272386431215
  O      -1.876933      0.000000     -2.327202
  C      -1.876941     -0.000007     -1.120553
  H      -1.876930      0.937664     -0.525693
  H      -1.876930     -0.937656     -0.525672
4
Coordinates from ORCA-job orca E -114.272421183468
  O      -1.876936     -0.000003     -2.327076
  C      -1.876934     -0.000003     -1.118498
  H      -1.876932      0.934746     -0.526782
  H      -1.876932     -0.934740     -0.526764
4
Coordinates from ORCA-job orca E -114.272425339995
  O      -1.876936     -0.000006     -2.327029
  C      -1.876933     -0.000001     -1.117374
  H      -1.876932      0.934892     -0.527365
  H      -1.876932     -0.934885     -0.527352
4
Coordinates from ORCA-job orca E -114.272426176416
  O      -1.876936     -0.000007     -2.326751
  C      -1.876933      0.000000     -1.116819
  H      -1.876932      0.935481     -0.527781
  H      -1.876932     -0.935474     -0.527769
4
Coordinates from ORCA-job orca E -114.272426249547
  O      -1.876936     -0.000008     -2.326524
  C      -1.876933      0.000000     -1.116630
  H      -1.876932      0.935824     -0.527988
  H      -1.876932     -0.935817     -0.527977
