3
Coordinates from ORCA-job orca E -38.890985199907
  C       0.263990     -0.464770     -0.000000
  H      -0.687240      0.106130      0.000000
  H       1.119310      0.241760     -0.000000
3
Coordinates from ORCA-job orca E -38.892057803588
  C       0.264795     -0.475515      0.000000
  H      -0.653347      0.114077      0.000000
  H       1.084611      0.244558      0.000000
3
Coordinates from ORCA-job orca E -38.892176095162
  C       0.265478     -0.484610      0.000000
  H      -0.644906      0.119284      0.000000
  H       1.075488      0.248446      0.000000
3
Coordinates from ORCA-job orca E -38.892188944900
  C       0.265758     -0.488336      0.000000
  H      -0.643577      0.121257      0.000000
  H       1.073879      0.250199      0.000000
3
Coordinates from ORCA-job orca E -38.892188992897
  C       0.265760     -0.488365      0.000000
  H      -0.643770      0.121257      0.000000
  H       1.074070      0.250228      0.000000
