3
Coordinates from ORCA-job orca E -38.852838404106
  C       0.263990     -0.464770     -0.000000
  H      -0.687240      0.106130      0.000000
  H       1.119310      0.241760     -0.000000
3
Coordinates from ORCA-job orca E -38.853338470593
  C       0.264609     -0.473026      0.000000
  H      -0.663666      0.112051      0.000000
  H       1.095118      0.244096      0.000000
3
Coordinates from ORCA-job orca E -38.853382407892
  C       0.265027     -0.478605      0.000000
  H      -0.659646      0.115157      0.000000
  H       1.090679      0.246567      0.000000
3
Coordinates from ORCA-job orca E -38.853387314785
  C       0.265200     -0.480905      0.000000
  H      -0.659055      0.116359      0.000000
  H       1.089915      0.247667      0.000000
3
Coordinates from ORCA-job orca E -38.853387321117
  C       0.265200     -0.480909      0.000000
  H      -0.659130      0.116355      0.000000
  H       1.089990      0.247674      0.000000
