4
Coordinates from ORCA-job orca E -114.476998270011
  O      -1.876933      0.000000     -2.327202
  C      -1.876941     -0.000007     -1.120553
  H      -1.876930      0.937664     -0.525693
  H      -1.876930     -0.937656     -0.525672
4
Coordinates from ORCA-job orca E -114.477066863607
  O      -1.876935     -0.000003     -2.322280
  C      -1.876934     -0.000003     -1.121054
  H      -1.876932      0.938066     -0.527901
  H      -1.876932     -0.938059     -0.527884
4
Coordinates from ORCA-job orca E -114.477068983106
  O      -1.876936     -0.000006     -2.321266
  C      -1.876933     -0.000001     -1.121358
  H      -1.876932      0.938835     -0.528255
  H      -1.876932     -0.938828     -0.528241
4
Coordinates from ORCA-job orca E -114.477068951458
  O      -1.876936     -0.000006     -2.321307
  C      -1.876933     -0.000001     -1.121389
  H      -1.876932      0.938894     -0.528218
  H      -1.876932     -0.938887     -0.528205
