3
Coordinates from ORCA-job orca E -76.282709344279
  O      -0.952268      0.000000     -0.997705
  H      -0.952268      0.759337     -0.401662
  H      -0.952268     -0.759337     -0.401662
3
Coordinates from ORCA-job orca E -76.282889427963
  O      -0.952268      0.000000     -0.997356
  H      -0.952268      0.747901     -0.401836
  H      -0.952268     -0.747901     -0.401836
3
Coordinates from ORCA-job orca E -76.282894412142
  O      -0.952268     -0.000000     -0.998573
  H      -0.952268      0.747545     -0.401228
  H      -0.952268     -0.747545     -0.401228
3
Coordinates from ORCA-job orca E -76.282895838988
  O      -0.952268      0.000000     -0.999697
  H      -0.952268      0.746670     -0.400666
  H      -0.952268     -0.746670     -0.400666
3
Coordinates from ORCA-job orca E -76.282895859112
  O      -0.952268     -0.000000     -0.999732
  H      -0.952268      0.746597     -0.400648
  H      -0.952268     -0.746597     -0.400648
