3
Coordinates from ORCA-job orca E -38.651063041955
  C       0.263990     -0.464770     -0.000000
  H      -0.687240      0.106130      0.000000
  H       1.119310      0.241760     -0.000000
3
Coordinates from ORCA-job orca E -38.651775340642
  C       0.264903     -0.476952      0.000000
  H      -0.660236      0.114282      0.000000
  H       1.091393      0.245790      0.000000
3
Coordinates from ORCA-job orca E -38.651849089941
  C       0.265487     -0.484723      0.000000
  H      -0.654497      0.118620      0.000000
  H       1.085070      0.249223      0.000000
3
Coordinates from ORCA-job orca E -38.651853868314
  C       0.265636     -0.486708      0.000000
  H      -0.654431      0.119624      0.000000
  H       1.084855      0.250205      0.000000
3
Coordinates from ORCA-job orca E -38.651853892353
  C       0.265638     -0.486736      0.000000
  H      -0.654566      0.119627      0.000000
  H       1.084988      0.250228      0.000000
