3
Coordinates from ORCA-job orca E -188.252412125462
  C      -1.859570      0.239890     -0.000000
  O      -0.663280      0.239890     -0.000000
  O      -3.055860      0.239890     -0.000010
3
Coordinates from ORCA-job orca E -188.255275063961
  C      -1.859570      0.239890     -0.000000
  O      -0.687756      0.239890      0.000000
  O      -3.031384      0.239890     -0.000010
3
Coordinates from ORCA-job orca E -188.255328915316
  C      -1.859570      0.239890     -0.000001
  O      -0.691886      0.239890      0.000000
  O      -3.027254      0.239890     -0.000010
3
Coordinates from ORCA-job orca E -188.255329727234
  C      -1.859570      0.239890     -0.000001
  O      -0.691499      0.239890      0.000000
  O      -3.027641      0.239890     -0.000009
3
Coordinates from ORCA-job orca E -188.255329458072
  C      -1.859570      0.239890     -0.000001
  O      -0.691504      0.239890      0.000000
  O      -3.027636      0.239890     -0.000009
