3
Coordinates from ORCA-job orca E -187.671328349163
  C      -1.859570      0.239890     -0.000000
  O      -0.663280      0.239890     -0.000000
  O      -3.055860      0.239890     -0.000010
3
Coordinates from ORCA-job orca E -187.687577127931
  C      -1.859570      0.239890     -0.000001
  O      -0.722702      0.239890      0.000000
  O      -2.996438      0.239890     -0.000010
3
Coordinates from ORCA-job orca E -187.687589646218
  C      -1.859570      0.239890     -0.000001
  O      -0.724710      0.239890      0.000000
  O      -2.994430      0.239890     -0.000009
3
Coordinates from ORCA-job orca E -187.687590366010
  C      -1.859570      0.239890     -0.000001
  O      -0.724329      0.239890      0.000000
  O      -2.994811      0.239890     -0.000009
3
Coordinates from ORCA-job orca E -187.687590366242
  C      -1.859570      0.239890     -0.000002
  O      -0.724331      0.239890      0.000001
  O      -2.994809      0.239890     -0.000009
