3
Coordinates from ORCA-job orca E -38.863899670914
  C       0.263990     -0.464770     -0.000000
  H      -0.687240      0.106130      0.000000
  H       1.119310      0.241760     -0.000000
3
Coordinates from ORCA-job orca E -38.864341473239
  C       0.264598     -0.472891      0.000000
  H      -0.665534      0.111843      0.000000
  H       1.096996      0.244169      0.000000
3
Coordinates from ORCA-job orca E -38.864386814091
  C       0.265036     -0.478722      0.000000
  H      -0.660666      0.115140      0.000000
  H       1.091690      0.246702      0.000000
3
Coordinates from ORCA-job orca E -38.864391326821
  C       0.265199     -0.480888      0.000000
  H      -0.660121      0.116270      0.000000
  H       1.090983      0.247738      0.000000
3
Coordinates from ORCA-job orca E -38.864391350875
  C       0.265201     -0.480923      0.000000
  H      -0.660249      0.116278      0.000000
  H       1.091108      0.247765      0.000000
