4
Coordinates from ORCA-job orca E -113.897284296266
  O      -1.876933      0.000000     -2.327202
  C      -1.876941     -0.000007     -1.120553
  H      -1.876930      0.937664     -0.525693
  H      -1.876930     -0.937656     -0.525672
4
Coordinates from ORCA-job orca E -113.899138946065
  O      -1.876936     -0.000003     -2.300262
  C      -1.876933     -0.000003     -1.119914
  H      -1.876932      0.924873     -0.539480
  H      -1.876932     -0.924867     -0.539463
4
Coordinates from ORCA-job orca E -113.899153995318
  O      -1.876936     -0.000006     -2.299468
  C      -1.876933     -0.000001     -1.120810
  H      -1.876932      0.927559     -0.539428
  H      -1.876932     -0.927553     -0.539414
4
Coordinates from ORCA-job orca E -113.899154033005
  O      -1.876936     -0.000006     -2.299566
  C      -1.876933     -0.000001     -1.120889
  H      -1.876932      0.927602     -0.539338
  H      -1.876932     -0.927595     -0.539326
